REMARK  5 active torsions:
REMARK  status: ('A' for Active; 'I' for Inactive)
REMARK    1  A    between atoms: CAM_13  and  CAS_19 
REMARK    2  A    between atoms: CAM_13  and  CBC_29 
REMARK    3  A    between atoms: OAQ_17  and  CAS_19 
REMARK    4  A    between atoms: OAQ_17  and  CBE_31 
REMARK    5  A    between atoms: CAT_20  and  CAW_23 
ROOT
ATOM      1  CAA JQ1 d   1       1.670  -1.822   8.966  0.00  0.00     0.075 C 
ATOM      2  CAB JQ1 d   1       3.563   2.590  12.694  0.00  0.00     0.134 C 
ATOM      3  CAC JQ1 d   1       2.186   1.068  15.057  0.00  0.00     0.122 C 
ATOM      4  NAN JQ1 d   1       1.585  -3.093  14.227  0.00  0.00    -0.577 NA
ATOM      5  NAO JQ1 d   1       2.024  -4.093  10.046  0.00  0.00    -0.337 NA
ATOM      6  NAP JQ1 d   1       2.311  -4.593  11.192  0.00  0.00    -0.332 NA
ATOM      7  SAR JQ1 d   1       3.199   0.130  11.248  0.00  0.00     0.053 SA
ATOM      8  CAT JQ1 d   1       1.326  -1.775  14.207  0.00  0.00     0.558 C 
ATOM      9  CAV JQ1 d   1       2.001  -2.753  10.134  0.00  0.00     0.379 A 
ATOM     10  CAX JQ1 d   1       3.037   1.135  12.642  0.00  0.00    -0.117 A 
ATOM     11  CAY JQ1 d   1       2.421   0.438  13.674  0.00  0.00    -0.058 A 
ATOM     12  CAZ JQ1 d   1       2.484  -3.566  12.046  0.00  0.00     0.360 A 
ATOM     13  CBA JQ1 d   1       2.019  -0.883  13.336  0.00  0.00    -0.209 A 
ATOM     14  CBB JQ1 d   1       2.383  -1.195  12.012  0.00  0.00    -0.013 A 
ATOM     15  CBC JQ1 d   1       2.792  -3.657  13.555  0.00  0.00     0.207 C 
ATOM     16  NBD JQ1 d   1       2.260  -2.413  11.415  0.00  0.00    -0.238 N 
ENDROOT
BRANCH  15  17
ATOM     17  CAM JQ1 d   1       3.109  -5.061  14.056  0.00  0.00     0.095 C 
BRANCH  17  18
ATOM     18  CAS JQ1 d   1       3.244  -5.012  15.582  0.00  0.00     0.652 C 
ATOM     19  OAG JQ1 d   1       2.921  -5.969  16.284  0.00  0.00    -0.542 OA
BRANCH  18  20
ATOM     20  OAQ JQ1 d   1       3.740  -3.882  16.070  0.00  0.00    -0.455 OA
BRANCH  20  21
ATOM     21  CBE JQ1 d   1       3.873  -3.544  17.500  0.00  0.00     0.174 C 
ATOM     22  CAD JQ1 d   1       2.475  -3.513  18.063  0.00  0.00     0.037 C 
ATOM     23  CAE JQ1 d   1       4.838  -4.498  18.233  0.00  0.00     0.037 C 
ATOM     24  CAF JQ1 d   1       4.478  -2.136  17.532  0.00  0.00     0.037 C 
ENDBRANCH  20  21
ENDBRANCH  18  20
ENDBRANCH  17  18
ENDBRANCH  15  17
BRANCH   8  25
ATOM     25  CAW JQ1 d   1       0.143  -1.353  14.910  0.00  0.00    -0.133 A 
ATOM     26  CAK JQ1 d   1      -0.521  -0.175  14.597  0.00  0.00     0.056 A 
ATOM     27  CAI JQ1 d   1      -1.665   0.221  15.297  0.00  0.00     0.020 A 
ATOM     28  CAU JQ1 d   1      -2.171  -0.563  16.307  0.00  0.00     0.026 A 
ATOM     29 ClAH JQ1 d   1      -3.598  -0.026  17.161  0.00  0.00    -0.089 Cl
ATOM     30  CAJ JQ1 d   1      -1.500  -1.731  16.662  0.00  0.00     0.020 A 
ATOM     31  CAL JQ1 d   1      -0.372  -2.136  15.957  0.00  0.00     0.056 A 
ENDBRANCH   8  25
TORSDOF 5
